&NAM_SPECTRE_FILE YINIFILE="EXP01.1.SEG01.004",
                  CTYPEFILE="MESONH" /

&NAM_SPECTRE LSPECTRE_U = .TRUE. /
